
  xtb     11092116353D
 xtb: 6.4.0 (d4b70c2)
 18 18  0     0  0            999 V2000
    1.7576   -1.2515    0.1214 C   0  0  0  0  0  0  0  0  0  0  0  0
    2.6293    0.0002    0.0684 C   0  0  0  0  0  0  0  0  0  0  0  0
    0.7605    1.2613   -1.0341 C   0  0  0  0  0  0  0  0  0  0  0  0
   -0.7566    0.0002   -1.9211 H   0  0  0  0  0  0  0  0  0  0  0  0
    1.7577    1.2519    0.1213 C   0  0  0  0  0  0  0  0  0  0  0  0
    1.3021    1.3082   -1.9830 H   0  0  0  0  0  0  0  0  0  0  0  0
    0.1188    2.1431   -0.9707 H   0  0  0  0  0  0  0  0  0  0  0  0
    0.7605   -1.2610   -1.0341 C   0  0  0  0  0  0  0  0  0  0  0  0
    3.3270    0.0002    0.9075 H   0  0  0  0  0  0  0  0  0  0  0  0
    3.2135    0.0001   -0.8550 H   0  0  0  0  0  0  0  0  0  0  0  0
   -0.0863    0.0002   -1.0586 C   0  0  0  0  0  0  0  0  0  0  0  0
    0.1187   -2.1427   -0.9706 H   0  0  0  0  0  0  0  0  0  0  0  0
    1.3020   -1.3080   -1.9830 H   0  0  0  0  0  0  0  0  0  0  0  0
    2.3794    2.1474    0.0705 H   0  0  0  0  0  0  0  0  0  0  0  0
    1.2151    1.2767    1.0695 H   0  0  0  0  0  0  0  0  0  0  0  0
    2.3793   -2.1471    0.0707 H   0  0  0  0  0  0  0  0  0  0  0  0
    1.2150   -1.2762    1.0696 H   0  0  0  0  0  0  0  0  0  0  0  0
   -1.3433   -0.0023    0.4926 Br  0  0  0  0  0  0  0  0  0  0  0  0
  1  2  1  0  0  0  0
  2  5  1  0  0  0  0
  3  5  1  0  0  0  0
  3  6  1  0  0  0  0
  3  7  1  0  0  0  0
  1  8  1  0  0  0  0
  2  9  1  0  0  0  0
  2 10  1  0  0  0  0
  3 11  1  0  0  0  0
  4 11  1  0  0  0  0
  8 11  1  0  0  0  0
  8 12  1  0  0  0  0
  8 13  1  0  0  0  0
  5 14  1  0  0  0  0
  5 15  1  0  0  0  0
  1 16  1  0  0  0  0
  1 17  1  0  0  0  0
 11 18  1  0  0  0  0
M  END
