
  xtb     11102101573D
 xtb: 6.3.2 (30e43eb)
 23 22  0     0  0            999 V2000
    1.7154   -1.4470    0.0433 C   0  0  0  0  0  0  0  0  0  0  0  0
    2.4398   -0.1275    0.2950 C   0  0  0  0  0  0  0  0  0  0  0  0
    1.6866    0.7060   -1.9480 C   0  0  0  0  0  0  0  0  0  0  0  0
   -0.0752   -0.5080   -1.7495 H   0  0  0  0  0  0  0  0  0  0  0  0
    1.7498    1.0098   -0.4534 C   0  0  0  0  0  0  0  0  0  0  0  0
    2.7032    0.6211   -2.3392 H   0  0  0  0  0  0  0  0  0  0  0  0
    1.1746    1.5107   -2.4797 H   0  0  0  0  0  0  0  0  0  0  0  0
    1.6566   -1.7472   -1.4520 C   0  0  0  0  0  0  0  0  0  0  0  0
    2.4475    0.0890    1.3649 H   0  0  0  0  0  0  0  0  0  0  0  0
    3.4752   -0.2107   -0.0441 H   0  0  0  0  0  0  0  0  0  0  0  0
    0.9321   -0.6085   -2.1767 C   0  0  0  0  0  0  0  0  0  0  0  0
    1.1261   -2.6846   -1.6314 H   0  0  0  0  0  0  0  0  0  0  0  0
    2.6739   -1.8411   -1.8379 H   0  0  0  0  0  0  0  0  0  0  0  0
    2.2860    1.9473   -0.2902 H   0  0  0  0  0  0  0  0  0  0  0  0
    0.7345    1.1336   -0.0658 H   0  0  0  0  0  0  0  0  0  0  0  0
    2.2249   -2.2611    0.5638 H   0  0  0  0  0  0  0  0  0  0  0  0
    0.6986   -1.3822    0.4401 H   0  0  0  0  0  0  0  0  0  0  0  0
   -3.2269    0.1036    1.4977 Br  0  0  0  0  0  0  0  0  0  0  0  0
    1.7647   -1.1383   -4.3870 C   0  0  0  0  0  0  0  0  0  0  0  0
    0.6575   -0.8753   -3.5479 O   0  0  0  0  0  0  0  0  0  0  0  0
    2.4849   -0.3160   -4.3816 H   0  0  0  0  0  0  0  0  0  0  0  0
    2.2681   -2.0697   -4.1110 H   0  0  0  0  0  0  0  0  0  0  0  0
    1.3454   -1.2396   -5.3865 H   0  0  0  0  0  0  0  0  0  0  0  0
  1  2  1  0  0  0  0
  2  5  1  0  0  0  0
  3  5  1  0  0  0  0
  3  6  1  0  0  0  0
  3  7  1  0  0  0  0
  1  8  1  0  0  0  0
  2  9  1  0  0  0  0
  2 10  1  0  0  0  0
  3 11  1  0  0  0  0
  4 11  1  0  0  0  0
  8 11  1  0  0  0  0
  8 12  1  0  0  0  0
  8 13  1  0  0  0  0
  5 14  1  0  0  0  0
  5 15  1  0  0  0  0
  1 16  1  0  0  0  0
  1 17  1  0  0  0  0
 11 20  1  0  0  0  0
 19 20  1  0  0  0  0
 19 21  1  0  0  0  0
 19 22  1  0  0  0  0
 19 23  1  0  0  0  0
M  CHG  1   1  -1
M  END
