23
Coordinates from ORCA-job scants+numfreq
  C   2.32867118490042     -1.52895422677449      0.30824301940570
  C   3.08133344114919      0.67742295666514     -0.53441791833943
  C   0.86183190686801      1.35641093703222      0.33655223131136
  H   0.56847183433422      0.01615943788202     -1.36022153145915
  C   2.35825190567237      1.38483656966002      0.31621162614235
  H   0.43519020006352      2.23233996210388     -0.16514489287566
  H   0.52794366319253      1.36349012291817      1.38589722255550
  C   0.84242406830045     -1.17094608123322      0.44982009060447
  H   4.15835186394938      0.67346420895988     -0.47367722564184
  H   2.66763276271200      0.26811776982045     -1.43441810102625
  C   0.36157490436472      0.06895216292146     -0.28961798767225
  H   0.60535300412468     -1.02178068233159      1.51131661288993
  H   0.25849479261691     -2.02629264357118      0.09388311977203
  H   2.82286540041474      1.88501242187088      1.15669847780113
  H   2.97697820879580     -0.93204994707120      0.92712658803495
  H   2.65349951244826     -1.58038547747825     -0.72047513643308
  H   2.41235193442235     -2.55342621884602      0.70008984170116
  Br  -1.60609524477413      0.08517682297107     -0.22580770372796
  C   0.56251785377014      0.68808423357720      4.29175980204650
  O   -0.02440368835957      0.41529385748186      3.14820666155529
  H   1.64203512653469      0.34144289546005      4.35351583577409
  H   0.60623798733666      1.79470231636191      4.53699549453312
  H   0.06109737716264      0.21675860161974      5.19068387304803
