23
Coordinates from ORCA-job scants+numfreq
  C   2.29401196267818     -1.55873614450936      0.32302951676070
  C   3.11436912767279      0.73345500084787     -0.53869982883364
  C   0.86473950979800      1.34161596418570      0.33697146326322
  H   0.60376670804487     -0.00636849636631     -1.35807909910670
  C   2.35975968415127      1.40709012419983      0.31106059967617
  H   0.42704319646885      2.21643920828499     -0.15773428718518
  H   0.53271400012912      1.34281313598971      1.38744105570459
  C   0.81384225075283     -1.18587361675658      0.46342474678369
  H   4.19018445514999      0.77724927868934     -0.47513856563308
  H   2.72134678066774      0.26334415125328     -1.41809460364677
  C   0.36741211617017      0.05528528511629     -0.29378780645395
  H   0.57681201235224     -1.02128610476591      1.52264075016360
  H   0.21839340385622     -2.03580039604447      0.11379043779816
  H   2.80736656681082      1.94951586479314      1.13453838127648
  H   2.94628298451365     -0.93171330700767      0.90908374898959
  H   2.60454849229507     -1.61919988124877     -0.71151349780099
  H   2.38913063297088     -2.57031188115169      0.73618428519849
  Br  -1.59970884717636      0.09786281649510     -0.28028546880121
  C   0.57915395043017      0.67665051675331      4.28761106620436
  O   -0.02208960563740      0.40978102733225      3.14958120017428
  H   1.65243534050502      0.31084554844176      4.34160429942903
  H   0.64461960799416      1.78313427132127      4.52752498956443
  H   0.07647566940173      0.21803763414694      5.19206661647475
