23
Coordinates from ORCA-job scants+numfreq
  C   2.35931777294644     -1.49907964012443      0.29739881024983
  C   3.04752208565132      0.62134315834270     -0.52196380672419
  C   0.85565505285673      1.37289778431320      0.33304327909348
  H   0.54125154123388      0.03845739131984     -1.36415077414333
  C   2.35276977720573      1.37136756391910      0.31763302123412
  H   0.43661601081711      2.24986907458488     -0.17249270296943
  H   0.52183224581419      1.38427394588972      1.38219180020640
  C   0.86802387380796     -1.15184197762174      0.43744766351846
  H   4.12447558534938      0.58356707206306     -0.46360836345234
  H   2.62475412728961      0.26099998948870     -1.43877797875436
  C   0.35616083300855      0.08410307466825     -0.28923893493029
  H   0.63052425947163     -1.01283549393906      1.50047716184992
  H   0.29450489422421     -2.01337255056299      0.07912857625492
  H   2.82859134546636      1.84099224695315      1.16938113757376
  H   3.00647695588858     -0.93288342879264      0.94421614450294
  H   2.69591186366126     -1.55997445018184     -0.72535660978115
  H   2.42725245517102     -2.53346709322325      0.67921113305753
  Br  -1.61009934947220      0.07178886258325     -0.18637234057822
  C   0.55326872386322      0.69232877947147      4.29232222831522
  O   -0.02449035792734      0.41813504209283      3.14473194955088
  H   1.63682578292520      0.35886058049282      4.35786444136466
  H   0.58196727426575      1.79818770474648      4.54356897511581
  H   0.05349724648142      0.21011236351650      5.18656518944539
