23
Coordinates from ORCA-job scants+numfreq
  C   2.07804222634740     -1.97426349181775      0.47325646302170
  C   3.18386379793554      1.71496391754478     -0.72942092708573
  C   0.96251928876142      1.17383506179881      0.25459349479669
  H   0.90004726904269     -0.36028371545517     -1.28313551713231
  C   2.45781909177374      1.26875173562258      0.27988540481221
  H   0.56245631745909      1.97796203812209     -0.37066157949779
  H   0.56756641859380      1.27633722967837      1.27482001776524
  C   0.69726361254390     -1.34835735571730      0.64084098419216
  H   4.25737581095811      1.77355795034178     -0.67606373741948
  H   2.72621385259982      2.04329089127841     -1.64839911947199
  C   0.47884101957917     -0.16629742266683     -0.29208471301247
  H   0.54449990294474     -0.99929864336259      1.67030132651382
  H   -0.05146357542326     -2.11996852746943      0.43781001642496
  H   2.92528099969054      0.95503671484963      1.20459995489423
  H   2.86301227220758     -1.25725950170958      0.69488648650376
  H   2.21044675491278     -2.33200386042513     -0.54657197026241
  H   2.17845021334146     -2.81503187892403      1.15540082980077
  Br  -1.45023845723055      0.01154396477503     -0.63262876811606
  C   0.60716636898278      0.76363385824117      4.30662987772877
  O   0.01686948010998      0.51563387372785      3.15847699728775
  H   1.51878157046987      0.11808110455655      4.50859447901830
  H   0.98513101961169      1.82779975464017      4.41239692050342
  H   -0.05733525521226      0.60616630237060      5.20969307873447
