23
Coordinates from ORCA-job scants+numfreq
  C   2.11081554964623     -1.72063348075105      0.49053188251134
  C   3.22824550970863      1.06695404669376     -0.62861268713426
  C   0.90379180441794      1.25143853133063      0.36221987512510
  H   0.81712309710284     -0.09985608691278     -1.34880396577882
  C   2.36917825402728      1.54023184905711      0.25599829147594
  H   0.37224125513946      2.12592745867074     -0.03362360349476
  H   0.62539385787539      1.16590590761252      1.42727692379446
  C   0.65125444398399     -1.27996906499600      0.47303483182741
  H   4.26208656161978      1.36769280604952     -0.61227064526091
  H   2.95291968631902      0.37121450203650     -1.40087996111984
  C   0.42296843170384     -0.01136891948709     -0.33392664087653
  H   0.31251024472280     -1.08934728045783      1.49914569419510
  H   0.04427210610394     -2.08956534950775      0.05518580829413
  H   2.70982668014306      2.24937614093450      1.00228533296247
  H   2.72969056510365     -0.98286253689482      0.99217323849405
  H   2.48224075490141     -1.87295896422288     -0.52047924093806
  H   2.19089379402156     -2.65911055295640      1.03528485980409
  Br  -1.51551383651036      0.16438237534683     -0.61587655986927
  C   0.69150587307683      0.62865473097475      4.27004133051119
  O   -0.00036917274940      0.39114168697448      3.17591774781864
  H   1.69976260543265      0.11081146468540      4.30165419048249
  H   0.92945895883987      1.72436025542854      4.43686944332584
  H   0.17231297536960      0.30141048039132      5.22007385385022
