23
Coordinates from ORCA-job scants+numfreq
  C   2.46782819616455     -1.30148656238484      0.28899316241566
  C   2.90566415554477      0.34163230812734     -0.45592938058125
  C   0.84972961354451      1.47804654963267      0.23398236461991
  H   0.40887481091247      0.08842945328176     -1.38341839827481
  C   2.35047742451606      1.36241655548258      0.23351263896992
  H   0.47981153495183      2.32859105311731     -0.35246372869338
  H   0.49824155300780      1.59412013074501      1.26774276240165
  C   0.94256697274862     -1.02831892591728      0.42454036999403
  H   3.98859284403276      0.29151831131137     -0.45765428655500
  H   2.48803785393165      0.15508658995750     -1.43208111616671
  C   0.32186164230288      0.16286165507025     -0.29783189518716
  H   0.72775344903574     -0.87630975306132      1.49155560373406
  H   0.40712389870952     -1.92539855710780      0.10008848248641
  H   2.84395918802714      1.76429784097235      1.11235789502842
  H   3.11690511975165     -0.90768973066011      1.05735414213018
  H   2.86646715408223     -1.59885092533134     -0.66928402772731
  H   2.43230873908633     -2.38088319459370      0.73017932792348
  Br  -1.62617167109932      0.06796481937893     -0.01894171789391
  C   0.53166405825328      0.60402027086698      4.31145566896023
  O   0.03328039139901      0.35467121325786      3.12423680409439
  H   1.64101690827973      0.37607726583784      4.40843882524873
  H   0.43881263492547      1.68827871142416      4.63566810938509
  H   0.04780352789130      0.01475492059247      5.15071839368738
