23
Coordinates from ORCA-job scants+numfreq
  C   -0.46336604647731     -2.29320155593781     -0.10470042053727
  C   -0.07135340409176      1.68188744323329     -0.31681717014132
  C   -0.86767932945874      0.26694050154445     -2.20589158984557
  H   0.94864739658811     -0.90208258137297     -1.88231667661101
  C   -0.97430489551899      0.84551973367757     -0.82196558510377
  H   -0.36692557755783      0.99157573554163     -2.83614810618276
  H   -1.85765251056747      0.07104633837167     -2.60494533781265
  C   -0.73052358523709     -2.24058179741834     -1.61346806811086
  H   -0.15832543379020      2.07341204578815      0.68490082730853
  H   0.78317222673784      1.96980199313565     -0.89604684240914
  C   -0.06391792741840     -1.05280346185428     -2.31014657851692
  H   -1.80307803313040     -2.21094726525208     -1.80578239315067
  H   -0.33488980083229     -3.12967695435480     -2.07518328151245
  H   -1.83170958871339      0.57254023117564     -0.24493668897999
  H   -0.96146331075552     -1.43234932355154      0.44036595772721
  H   0.59298907047064     -2.34183519330245      0.09481408838173
  H   -0.95238228355453     -3.17413575607039      0.29066474499838
  Br  4.42044402557857     -3.46883340426599     -3.10938157047494
  C   1.06781747233979     -0.74979641428558     -4.39678631010157
  O   0.06270873533262     -1.42522754310665     -3.69293442954989
  H   1.13792053234908     -1.27264756961227     -5.34433877737901
  H   0.83049781401151      0.30158229849037     -4.56296214257261
  H   2.02841635069574     -0.80562217857327     -3.86297698342347
