23
Coordinates from ORCA-job scants+numfreq
  C   2.23082903397518     -1.59289397477371      0.39887430578125
  C   3.16468366914539      0.83973352401587     -0.59839877024826
  C   0.89140445089850      1.29475777605696      0.36152854772535
  H   0.66260192852217     -0.02386817183139     -1.36032774898610
  C   2.37592676846104      1.45296937461811      0.26527266625298
  H   0.40442076187725      2.18107277701633     -0.06252333735085
  H   0.60880061653175      1.23928238071398      1.42685624772506
  C   0.74586658489726     -1.23326921568082      0.45097937970608
  H   4.23115223344011      0.99468658908548     -0.57665181498418
  H   2.79693620024825      0.24491391393218     -1.41151000255113
  C   0.38056507694177      0.03237750754327     -0.30680370288244
  H   0.44258961724855     -1.08877678571841      1.49572525556407
  H   0.17079982315886     -2.07045159651945      0.04190875127391
  H   2.80033048653345      2.09247302402126      1.02999703804563
  H   2.83559685841773     -0.89454380775592      0.96011298568209
  H   2.58610030853818     -1.67760157189657     -0.62191436349493
  H   2.34432223405790     -2.57234952663142      0.86922250196595
  Br  -1.58295666884554      0.14071214370633     -0.37802875488203
  C   0.60781598684072      0.65623834780614      4.29237232888960
  O   -0.01233249214279      0.40499580149521      3.15987787550438
  H   1.64264871287588      0.19689783760957      4.36480566207775
  H   0.77224021217620      1.75970755006447      4.49402289618021
  H   0.06226759620221      0.27676610312252      5.20782205300563
