23
Coordinates from ORCA-job scants+numfreq
  C   2.01690223944823     -2.07693863194640      0.53530453048526
  C   3.16508693269398      1.93751761175949     -0.67031940461645
  C   0.98196000354206      1.13426059039248      0.21162249433030
  H   0.95673740238559     -0.44886191054466     -1.27844849434930
  C   2.47282426982600      1.26046375160164      0.22840165170095
  H   0.56708737656938      1.92687276902601     -0.41837300473680
  H   0.59683330397313      1.24821222582341      1.23622437223570
  C   0.66665352153387     -1.37943260607152      0.66603690768462
  H   4.23704656025494      2.02146868739476     -0.61846431418898
  H   2.67930252956034      2.43855501621234     -1.49172159425612
  C   0.50440719310381     -0.21994812915187     -0.30866045685508
  H   0.51860805429691     -0.98712842809360      1.68047591989052
  H   -0.11316374867370     -2.12466114135146      0.48340241109561
  H   2.96957138850168      0.77608537856141      1.05876657361670
  H   2.83496505882429     -1.39856764415529      0.75874847700411
  H   2.14852708074319     -2.46066988027975     -0.47528338631476
  H   2.06230561033635     -2.90894804522670      1.23391410806490
  Br  -1.40902609331796     -0.02720998880846     -0.72655566732849
  C   0.65451734207168      0.78651937638530      4.26815121725890
  O   0.04559171532800      0.56047477833560      3.12398556346224
  H   1.53008486374227      0.09384241412356      4.47029091559615
  H   1.08948725958131      1.82910087200891      4.36138077458531
  H   -0.01369986432530      0.67282293400479      5.17434040563469
