23
Coordinates from ORCA-job scants+numfreq
  C   2.19912716656259     -1.62720456224174      0.41116700158336
  C   3.18875535981181      0.89417723075549     -0.60724855023533
  C   0.89735395399842      1.28219647737916      0.36074049030501
  H   0.69986474285907     -0.04493743595897     -1.35841620388759
  C   2.37679039650875      1.47851695279390      0.25489761659499
  H   0.39700689209565      2.16683495265067     -0.05182000708694
  H   0.62072781692659      1.21803910040801      1.42747356290593
  C   0.72114673015287     -1.24520502206157      0.45957831797643
  H   4.24706957297363      1.09712734753075     -0.59136124746354
  H   2.84880969630691      0.25308326891383     -1.39786072555549
  C   0.39004484099947      0.02090222666130     -0.31304976815479
  H   0.41974738250927     -1.08306605075101      1.50230503662716
  H   0.13151668408443     -2.07545325105377      0.05752893365423
  H   2.77773318693570      2.15319157837845      1.00228276605872
  H   2.81143369932560     -0.91496736150417      0.94918496059242
  H   2.54726989471392     -1.72887386586658     -0.61192417617274
  H   2.31102912419661     -2.59591306329981      0.90037814213153
  Br  -1.56895183694941      0.15107783490960     -0.43309040412800
  C   0.62264908917808      0.64816160919943      4.29721203712460
  O   0.00422927242843      0.39617858151527      3.16369237621873
  H   1.65308270621777      0.18048048095153      4.37557981690918
  H   0.79564709683336      1.75117934195123      4.49345077818091
  H   0.07052653133049      0.27830362873897      5.21251924582123
