23
 xtb: 6.4.0 (d4b70c2)
C         0.27114147325539   -1.62511914769064   -0.33219968545172
C         0.63586133078767   -0.13722261751604   -0.36709016967118
C        -1.35378675800226    0.49603345030391   -1.76086931414029
H        -0.08794794125879   -0.84990328161768   -2.90462697276137
C        -0.63063454288575    0.71048307351371   -0.42277646130384
H        -1.05211210264942    1.25147017828513   -2.48395987884688
H        -2.43897634417071    0.58648078839634   -1.60795512208243
C        -0.94852718448516   -1.92025880567112   -1.21856761967989
H         1.23412004097917    0.12526205172354    0.50615780861751
H         1.23962776937157    0.07365229058985   -1.26083507089401
C        -1.01953743123424   -0.88178383037014   -2.32145087301640
H        -1.86416777622351   -1.88277043667215   -0.63035424751350
H        -0.85897388745725   -2.92196850219926   -1.64629506603944
H        -0.38849660478148    1.76794264272252   -0.30781006973181
H        -1.28140468264378    0.42266823826594    0.40824582706897
H         1.13706879863772   -2.19419135698316   -0.69579894778748
H         0.06607097342534   -1.93516413428836    0.68635805758972
Br       -2.39856259516681   -1.39542380963673   -3.61492150218759
C         2.03421210894258   -1.47589848469167   -4.63216065615806
O         1.60748414516645   -0.54856343617182   -3.79979211906922
H         1.32260264928736   -1.67463378691394   -5.50893846201074
H         3.03247201100400   -1.23025342314314   -5.11344850178720
H         2.18092437593964   -2.50159220235803   -4.14465043239181
