
  xtb     11092117253D
 xtb: 6.4.0 (d4b70c2)
 23 22  0     0  0            999 V2000
    0.2828   -1.6196   -0.3394 C   0  0  0  0  0  0  0  0  0  0  0  0
    0.6385   -0.1294   -0.3725 C   0  0  0  0  0  0  0  0  0  0  0  0
   -1.3620    0.4945   -1.7553 C   0  0  0  0  0  0  0  0  0  0  0  0
   -0.0887   -0.8471   -2.9048 H   0  0  0  0  0  0  0  0  0  0  0  0
   -0.6330    0.7113   -0.4207 C   0  0  0  0  0  0  0  0  0  0  0  0
   -1.0573    1.2521   -2.4824 H   0  0  0  0  0  0  0  0  0  0  0  0
   -2.4413    0.5835   -1.6046 H   0  0  0  0  0  0  0  0  0  0  0  0
   -0.9407   -1.9193   -1.2189 C   0  0  0  0  0  0  0  0  0  0  0  0
    1.2356    0.1280    0.5039 H   0  0  0  0  0  0  0  0  0  0  0  0
    1.2389    0.0774   -1.2631 H   0  0  0  0  0  0  0  0  0  0  0  0
   -1.0207   -0.8797   -2.3202 C   0  0  0  0  0  0  0  0  0  0  0  0
   -1.8610   -1.8836   -0.6290 H   0  0  0  0  0  0  0  0  0  0  0  0
   -0.8563   -2.9216   -1.6466 H   0  0  0  0  0  0  0  0  0  0  0  0
   -0.3907    1.7685   -0.3072 H   0  0  0  0  0  0  0  0  0  0  0  0
   -1.2804    0.4216    0.4097 H   0  0  0  0  0  0  0  0  0  0  0  0
    1.1408   -2.1907   -0.7002 H   0  0  0  0  0  0  0  0  0  0  0  0
    0.0720   -1.9349    0.6844 H   0  0  0  0  0  0  0  0  0  0  0  0
   -2.3951   -1.4015   -3.6133 Br  0  0  0  0  0  0  0  0  0  0  0  0
    2.0262   -1.4773   -4.6309 C   0  0  0  0  0  0  0  0  0  0  0  0
    1.5977   -0.5493   -3.8005 O   0  0  0  0  0  0  0  0  0  0  0  0
    1.4094   -1.5732   -5.5770 H   0  0  0  0  0  0  0  0  0  0  0  0
    3.0833   -1.3114   -4.9956 H   0  0  0  0  0  0  0  0  0  0  0  0
    2.0369   -2.5240   -4.1927 H   0  0  0  0  0  0  0  0  0  0  0  0
  1  2  1  0  0  0  0
  2  5  1  0  0  0  0
  3  5  1  0  0  0  0
  3  6  1  0  0  0  0
  3  7  1  0  0  0  0
  1  8  1  0  0  0  0
  2  9  1  0  0  0  0
  2 10  1  0  0  0  0
  3 11  1  0  0  0  0
  4 11  1  0  0  0  0
  8 11  1  0  0  0  0
  8 12  1  0  0  0  0
  8 13  1  0  0  0  0
  5 14  1  0  0  0  0
  5 15  1  0  0  0  0
  1 16  1  0  0  0  0
  1 17  1  0  0  0  0
 11 18  1  0  0  0  0
 19 20  1  0  0  0  0
 19 21  1  0  0  0  0
 19 22  1  0  0  0  0
 19 23  1  0  0  0  0
M  CHG  1   1  -1
M  END
