
  xtb     11092116173D
 xtb: 6.4.0 (d4b70c2)
 18 18  0     0  0            999 V2000
    2.3615   -1.2530   -0.2015 C   0  0  0  0  0  0  0  0  0  0  0  0
    3.0396    0.0001    0.3453 C   0  0  0  0  0  0  0  0  0  0  0  0
    0.8729    1.2552    0.1494 C   0  0  0  0  0  0  0  0  0  0  0  0
    0.2576   -0.0001   -1.5003 H   0  0  0  0  0  0  0  0  0  0  0  0
    2.3613    1.2530   -0.2016 C   0  0  0  0  0  0  0  0  0  0  0  0
    0.3901    2.1441   -0.2624 H   0  0  0  0  0  0  0  0  0  0  0  0
    0.7502    1.2759    1.2350 H   0  0  0  0  0  0  0  0  0  0  0  0
    0.8731   -1.2554    0.1493 C   0  0  0  0  0  0  0  0  0  0  0  0
    2.9780    0.0001    1.4358 H   0  0  0  0  0  0  0  0  0  0  0  0
    4.0952    0.0002    0.0689 H   0  0  0  0  0  0  0  0  0  0  0  0
    0.2288   -0.0001   -0.4085 C   0  0  0  0  0  0  0  0  0  0  0  0
    0.7504   -1.2761    1.2350 H   0  0  0  0  0  0  0  0  0  0  0  0
    0.3904   -2.1443   -0.2625 H   0  0  0  0  0  0  0  0  0  0  0  0
    2.4773    1.2866   -1.2873 H   0  0  0  0  0  0  0  0  0  0  0  0
    2.8290    2.1467    0.2140 H   0  0  0  0  0  0  0  0  0  0  0  0
    2.4776   -1.2867   -1.2872 H   0  0  0  0  0  0  0  0  0  0  0  0
    2.8293   -2.1466    0.2142 H   0  0  0  0  0  0  0  0  0  0  0  0
   -1.7231    0.0001    0.0236 Br  0  0  0  0  0  0  0  0  0  0  0  0
  1  2  1  0  0  0  0
  2  5  1  0  0  0  0
  3  5  1  0  0  0  0
  3  6  1  0  0  0  0
  3  7  1  0  0  0  0
  1  8  1  0  0  0  0
  2  9  1  0  0  0  0
  2 10  1  0  0  0  0
  3 11  1  0  0  0  0
  4 11  1  0  0  0  0
  8 11  1  0  0  0  0
  8 12  1  0  0  0  0
  8 13  1  0  0  0  0
  5 14  1  0  0  0  0
  5 15  1  0  0  0  0
  1 16  1  0  0  0  0
  1 17  1  0  0  0  0
 11 18  1  0  0  0  0
M  END
