
  xtb     11102100403D
 xtb: 6.3.2 (30e43eb)
 23 22  0     0  0            999 V2000
    2.7810   -1.2314   -0.3029 C   0  0  0  0  0  0  0  0  0  0  0  0
    2.9986   -0.0538    0.6389 C   0  0  0  0  0  0  0  0  0  0  0  0
    1.6451    1.4334   -0.8622 C   0  0  0  0  0  0  0  0  0  0  0  0
    0.0531    0.3322   -1.7634 H   0  0  0  0  0  0  0  0  0  0  0  0
    2.9894    1.2432   -0.1605 C   0  0  0  0  0  0  0  0  0  0  0  0
    1.6759    2.3071   -1.5179 H   0  0  0  0  0  0  0  0  0  0  0  0
    0.8857    1.6249   -0.0995 H   0  0  0  0  0  0  0  0  0  0  0  0
    1.4268   -1.1162   -1.0018 C   0  0  0  0  0  0  0  0  0  0  0  0
    2.1983   -0.0289    1.3829 H   0  0  0  0  0  0  0  0  0  0  0  0
    3.9498   -0.1639    1.1635 H   0  0  0  0  0  0  0  0  0  0  0  0
    1.1458    0.2329   -1.6886 C   0  0  0  0  0  0  0  0  0  0  0  0
    0.6423   -1.2543   -0.2530 H   0  0  0  0  0  0  0  0  0  0  0  0
    1.3102   -1.9082   -1.7456 H   0  0  0  0  0  0  0  0  0  0  0  0
    3.8060    1.2234   -0.8837 H   0  0  0  0  0  0  0  0  0  0  0  0
    3.1532    2.0944    0.5045 H   0  0  0  0  0  0  0  0  0  0  0  0
    3.5936   -1.2610   -1.0303 H   0  0  0  0  0  0  0  0  0  0  0  0
    2.7997   -2.1685    0.2583 H   0  0  0  0  0  0  0  0  0  0  0  0
   -3.0133    0.5158    1.4050 Br  0  0  0  0  0  0  0  0  0  0  0  0
    1.5039    0.2812   -3.0659 O   0  0  0  0  0  0  0  0  0  0  0  0
    2.8631    0.1292   -3.4197 C   0  0  0  0  0  0  0  0  0  0  0  0
    2.8825    0.2195   -4.5053 H   0  0  0  0  0  0  0  0  0  0  0  0
    3.4877    0.9132   -2.9843 H   0  0  0  0  0  0  0  0  0  0  0  0
    3.2483   -0.8538   -3.1363 H   0  0  0  0  0  0  0  0  0  0  0  0
  1  2  1  0  0  0  0
  2  5  1  0  0  0  0
  3  5  1  0  0  0  0
  3  6  1  0  0  0  0
  3  7  1  0  0  0  0
  1  8  1  0  0  0  0
  2  9  1  0  0  0  0
  2 10  1  0  0  0  0
  3 11  1  0  0  0  0
  4 11  1  0  0  0  0
  8 11  1  0  0  0  0
  8 12  1  0  0  0  0
  8 13  1  0  0  0  0
  5 14  1  0  0  0  0
  5 15  1  0  0  0  0
  1 16  1  0  0  0  0
  1 17  1  0  0  0  0
 11 19  1  0  0  0  0
 19 20  1  0  0  0  0
 20 21  1  0  0  0  0
 20 22  1  0  0  0  0
 20 23  1  0  0  0  0
M  CHG  1   1  -1
M  END
